src/tests/data/grids/RAW/micro_grid_assmb_v33.raw
0,   100.00, 33, 0, 0, 50.00        / PSS/E-33.0
Import_micro_grid-Study Case
PowerFactory 2024 SP2  Date: 23-May-24, Time: 00:40:06
     1,'BE-Busbar_2 ', 225.0000,1,   2,   1,   1,0.95439,   6.5270,1.10000,0.90000,1.10000,0.90000
     2,'BE-Busbar_4 ',  10.5000,2,   2,   1,   1,0.93120,   1.0389,1.10000,0.90000,1.10000,0.90000
     3,'BE-Busbar_5 ',  21.0000,2,   2,   1,   1,1.04156,  -1.4846,1.10000,0.90000,1.10000,0.90000
     4,'BE-Busbar_6 ', 110.0000,1,   2,   1,   1,1.05000,  -1.5255,1.10000,0.90000,1.10000,0.90000
     5,'BE_TR_BUS2  ', 380.0000,1,   2,   1,   1,1.05342,  -3.1727,1.10000,0.90000,1.10000,0.90000
     6,'BE_TR_BUS4  ', 225.0000,1,   2,   1,   1,0.97884,  -1.4587,1.10000,0.90000,1.10000,0.90000
     7,'Border_AL11 ', 400.0000,2,   1,   1,   1,0.99790,  -3.2580,9.99900,0.00000,9.99900,0.00000
     8,'Border_GY11 ', 400.0000,2,   1,   1,   1,0.99724,  -3.2547,9.99900,0.00000,9.99900,0.00000
    10,'Border_MA11 ', 400.0000,2,   1,   1,   1,1.00010,  -3.1881,9.99900,0.00000,9.99900,0.00000
    11,'Border_ST23 ', 220.0000,2,   1,   1,   1,0.97272,  19.5172,9.99900,0.00000,9.99900,0.00000
    12,'Border_ST24 ', 220.0000,2,   1,   1,   1,0.96972,  19.3155,9.99900,0.00000,9.99900,0.00000
    13,'N1230822413 ',  15.7500,2,   3,   1,   1,1.01700,  32.9370,1.10000,0.90000,1.10000,0.90000
    14,'N1230992195 ', 400.0000,1,   3,   1,   1,0.99369,  -3.3278,1.10000,0.90000,1.10000,0.90000
    15,'NL-Busbar_2 ', 220.0000,1,   3,   1,   1,1.01591,  -3.1788,1.10000,0.90000,1.10000,0.90000
    16,'NL_Busbar__4', 220.0000,1,   3,   1,   1,1.00819,  31.1428,1.10000,0.90000,1.10000,0.90000
    17,'NL_TR_BUS2  ',  15.7500,3,   3,   1,   1,1.01800,   0.0000,1.10000,0.90000,1.10000,0.90000
0 / END OF BUS DATA, BEGIN LOAD DATA
     1,'1 ',1,   2,   1,     1.000,     0.000,     0.000,     0.000,     0.000,     0.000,   1,1,0
     4,'1 ',1,   2,   1,   200.000,    90.000,     0.000,     0.000,     0.000,     0.000,   1,1,0
     6,'1 ',1,   2,   1,   200.000,    50.000,     0.000,     0.000,     0.000,     0.000,   1,1,0
    14,'1 ',1,   3,   1,    90.000,   280.000,     0.000,     0.000,     0.000,     0.000,   1,1,0
    14,'2 ',1,   3,   1,    10.000,    10.000,     0.000,     0.000,     0.000,     0.000,   1,1,0
    15,'1 ',1,   3,   1,   486.000,   230.000,     0.000,     0.000,     0.000,     0.000,   1,1,0
0 / END OF LOAD DATA, BEGIN FIXED SHUNT DATA
     4,'1 ',1,     0.000,   299.995
     5,'1 ',1,     1.011,    49.962
    14,'1 ',1,     0.000,    50.080
0 / END OF FIXED SHUNT DATA, BEGIN GENERATOR DATA
     2,'1 ',    90.000,  -182.785,   210.000,  -210.000,1.050000,     4,   300.000,0.00000E+00,2.00000E-01,0.00000E+00,0.00000E+00,1.00000,1,  100.0,   200.000,    50.000,   1,1.0000,   0,1.0000,   0,1.0000,   0,1.0000,0, 1.0000
     3,'1 ',   118.000,   200.000,   200.000,  -200.000,1.047000,     0,   300.000,0.00000E+00,2.00000E-01,0.00000E+00,0.00000E+00,1.00000,1,  100.0,   200.000,    50.000,   1,1.0000,   0,1.0000,   0,1.0000,   0,1.0000,0, 1.0000
     7,'1 ',     0.000,     0.000,     0.000,     0.000,1.000000,     0,   100.000,0.00000E+00,2.00000E-01,0.00000E+00,0.00000E+00,1.00000,0,    0.1,  9999.000, -9999.000,   1,1.0000,   0,1.0000,   0,1.0000,   0,1.0000,0, 1.0000
     7,'2 ',     0.000,     0.000,     0.000,     0.000,1.000000,     0,   100.000,0.00000E+00,2.00000E-01,0.00000E+00,0.00000E+00,1.00000,0,    0.1,  9999.000, -9999.000,   1,1.0000,   0,1.0000,   0,1.0000,   0,1.0000,0, 1.0000
     8,'1 ',     0.000,     0.000,     0.000,     0.000,1.000000,     0,   100.000,0.00000E+00,2.00000E-01,0.00000E+00,0.00000E+00,1.00000,0,    0.1,  9999.000, -9999.000,   1,1.0000,   0,1.0000,   0,1.0000,   0,1.0000,0, 1.0000
     8,'2 ',     0.000,     0.000,     0.000,     0.000,1.000000,     0,   100.000,0.00000E+00,2.00000E-01,0.00000E+00,0.00000E+00,1.00000,0,    0.1,  9999.000, -9999.000,   1,1.0000,   0,1.0000,   0,1.0000,   0,1.0000,0, 1.0000
    10,'1 ',     0.000,     0.000,     0.000,     0.000,1.000000,     0,   100.000,0.00000E+00,2.00000E-01,0.00000E+00,0.00000E+00,1.00000,0,    0.1,  9999.000, -9999.000,   1,1.0000,   0,1.0000,   0,1.0000,   0,1.0000,0, 1.0000
    10,'2 ',     0.000,     0.000,     0.000,     0.000,1.000000,     0,   100.000,0.00000E+00,2.00000E-01,0.00000E+00,0.00000E+00,1.00000,0,    0.1,  9999.000, -9999.000,   1,1.0000,   0,1.0000,   0,1.0000,   0,1.0000,0, 1.0000
    11,'2 ',     0.000,     0.000,     0.000,     0.000,1.000000,     0,   100.000,0.00000E+00,2.00000E-01,0.00000E+00,0.00000E+00,1.00000,0,    0.1,  9999.000, -9999.000,   1,1.0000,   0,1.0000,   0,1.0000,   0,1.0000,0, 1.0000
    11,'1 ',     0.000,     0.000,     0.000,     0.000,1.000000,     0,   100.000,0.00000E+00,2.00000E-01,0.00000E+00,0.00000E+00,1.00000,0,    0.1,  9999.000, -9999.000,   1,1.0000,   0,1.0000,   0,1.0000,   0,1.0000,0, 1.0000
    12,'2 ',     0.000,     0.000,     0.000,     0.000,1.000000,     0,   100.000,0.00000E+00,2.00000E-01,0.00000E+00,0.00000E+00,1.00000,0,    0.1,  9999.000, -9999.000,   1,1.0000,   0,1.0000,   0,1.0000,   0,1.0000,0, 1.0000
    12,'1 ',     0.000,     0.000,     0.000,     0.000,1.000000,     0,   100.000,0.00000E+00,2.00000E-01,0.00000E+00,0.00000E+00,1.00000,0,    0.1,  9999.000, -9999.000,   1,1.0000,   0,1.0000,   0,1.0000,   0,1.0000,0, 1.0000
    13,'2 ',   150.000,    42.118,   200.000,     0.000,1.017000,     0,   250.000,0.00000E+00,2.00000E-01,0.00000E+00,0.00000E+00,1.00000,1,  100.0,   250.000,   130.000,   1,1.0000,   0,1.0000,   0,1.0000,   0,1.0000,0, 1.0000
    13,'1 ',   140.000,    39.310,   200.000,     0.000,1.017000,     0,   250.000,0.00000E+00,2.00000E-01,0.00000E+00,0.00000E+00,1.00000,1,  100.0,   250.000,   130.000,   1,1.0000,   0,1.0000,   0,1.0000,   0,1.0000,0, 1.0000
    17,'1 ',   504.283,   309.033,   600.000,     0.000,1.018000,     0,  1100.000,0.00000E+00,2.00000E-01,0.00000E+00,0.00000E+00,1.00000,1,  100.0,  1000.000,   300.000,   1,1.0000,   0,1.0000,   0,1.0000,   0,1.0000,0, 1.0000
0 / END OF GENERATOR DATA, BEGIN BRANCH DATA
     6,     1,'1 ',3.82222E-03,6.75556E-02,   0.02147,  562.35,  562.35,  562.35,  0.00000,  0.00000,  0.00000,  0.00000,1,1,  45.00
    12,     1,'1 ',9.94104E-03,1.49116E-01,   0.01003,  449.64,  449.64,  449.64,  0.00000,  0.00000,  0.00000,  0.00000,1,1,  23.00
    11,     1,'1 ',4.75441E-03,1.47387E-01,   0.03838,  549.86,  549.86,  549.86,  0.00000,  0.00000,  0.00000,  0.00000,1,1,  22.00
     6,     1,'2 ',1.02775E-02,1.40247E-01,   0.01013,  459.86,  459.86,  459.86,  0.00000,  0.00000,  0.00000,  0.00000,1,1, 100.00
     5,     7,'1 ',8.05703E-04,9.20803E-03,   0.19529,  902.36,  902.36,  902.36,  0.00000,  0.00000,  0.00000,  0.00000,1,2,  30.00
     5,     8,'1 ',3.22281E-04,4.83422E-03,   0.08598, 1187.36, 1187.36, 1187.36,  0.00000,  0.00000,  0.00000,  0.00000,1,2,  35.00
     5,    10,'1 ',1.84161E-04,1.53467E-03,   0.03283,  806.93,  806.93,  806.93,  0.00000,  0.00000,  0.00000,  0.00000,1,2,  40.00
    14,     7,'1 ',6.37500E-04,7.50000E-03,   0.22619,  949.86,  949.86,  949.86,  0.00000,  0.00000,  0.00000,  0.00000,1,2,  30.00
    14,     8,'1 ',2.62500E-04,3.93750E-03,   0.10380, 1249.85, 1249.85, 1249.85,  0.00000,  0.00000,  0.00000,  0.00000,1,2,  35.00
    14,    10,'1 ',1.45000E-03,1.26500E-02,   0.04021,  849.40,  849.40,  849.40,  0.00000,  0.00000,  0.00000,  0.00000,1,2,  40.00
    16,    11,'1 ',4.54545E-03,1.36364E-01,   0.04349,  549.86,  549.86,  549.86,  0.00000,  0.00000,  0.00000,  0.00000,1,2,  22.00
    16,    12,'1 ',1.04545E-02,1.42562E-01,   0.00979,  449.64,  449.64,  449.64,  0.00000,  0.00000,  0.00000,  0.00000,1,2,  23.00
0 / END OF BRANCH DATA, BEGIN TRANSFORMER DATA
     2,     4,     0,'1 ',3,1,1,2.00994E-03,-9.66159E-03,2,'4_2_1       ',1,   1,1.0000,   0,1.0000,   0,1.0000,   0,1.0000,'YNyn0       '
8.59997E-04,4.79923E-02,   250.00
0.97600,  10.500,  -0.000,   249.23,   249.23,   249.23, 1,      2, 1.12800, 0.87200, 1.05381, 1.00619,  33, 0, 0.00000, 0.00000,  0.000
1.00000, 110.344
     5,     4,     0,'1 ',3,1,1,0.00000E+00,0.00000E+00,2,'5_4_1       ',1,   1,1.0000,   0,1.0000,   0,1.0000,   0,1.0000,'YNyn0       '
1.69231E-03,9.07432E-03,   650.00
0.95066, 400.000,  -2.148,   617.50,   617.50,   617.50, 3,      5, 8.53077,-8.53077,-47.50000,-82.50000,   3, 0, 0.00000, 0.00000,  0.000
1.00000, 110.000
     6,     4,     0,'1 ',3,1,1,0.00000E+00,0.00000E+00,2,'6_4_1       ',1,   1,1.0000,   0,1.0000,   0,1.0000,   0,1.0000,'YNyn0       '
1.70000E-03,2.30142E-02,   650.00
0.96250, 220.000,   0.000,   650.00,   650.00,   650.00, 0,      0, 1.00000, 0.96250, 1.10000, 0.90000,   2, 0, 0.00000, 0.00000,  0.000
1.00000, 110.000
    16,    13,     0,'1 ',3,1,1,8.79999E-03,-6.87401E-02,2,'16_13_1     ',1,   1,1.0000,   0,1.0000,   0,1.0000,   0,1.0000,'YNyn0       '
1.42857E-04,1.11102E-02,  1260.00
1.00000, 220.000,   0.000,  1259.98,  1259.98,  1259.98, 0,      0, 1.00000, 1.00000, 1.10000, 0.90000,   2, 0, 0.00000, 0.00000,  0.000
1.00000,  15.750
    14,    15,     0,'1 ',3,1,1,8.71430E-04,-6.88525E-03,2,'14_15_1     ',1,   1,1.0000,   0,1.0000,   0,1.0000,   0,1.0000,'YNyn0       '
8.43750E-04,1.74796E-02,   320.00
0.98400, 400.000,   0.000,   320.01,   320.01,   320.01, 0,      0, 1.00000, 0.98400, 1.10000, 0.90000,   2, 0, 0.00000, 0.00000,  0.000
1.00000, 220.000
    15,    17,     0,'1 ',3,1,1,9.35858E-03,-7.31035E-02,2,'15_17_1     ',1,   1,1.0000,   0,1.0000,   0,1.0000,   0,1.0000,'YNyn0       '
1.34921E-04,1.11103E-02,  1260.00
1.03125, 220.000,   0.000,  1259.98,  1259.98,  1259.98, 0,      0, 1.03125, 1.00000, 1.10000, 0.90000,   2, 0, 0.00000, 0.00000,  0.000
1.00000,  15.750
     5,     6,     3,'1 ',3,1,1,0.00000E+00,-3.90000E-03,2,'5_6_3_1     ',1,   1,1.0000,   0,1.0000,   0,1.0000,   0,1.0000,'YN0yn0yn0   '
1.23077E-03,2.30441E-02,   617.50,3.69236E-03,2.58919E-02,   650.00,3.58466E-03,2.43530E-02,   617.50,1.01206,  -2.0283
1.00000, 400.000,   0.000,   617.50,   617.50,   617.50, 0,      0, 1.00000, 1.00000, 1.10000, 0.90000,  33, 0, 0.00000, 0.00000,  0.000
1.00000, 220.000,   0.000,   664.77,   664.77,   664.77, 0,      0, 1.00000, 1.00000, 1.10000, 0.90000,  33, 0, 0.00000, 0.00000,  0.000
1.00000,  21.000,   0.000,   650.00,   650.00,   650.00, 0,      0, 1.00000, 1.00000, 1.10000, 0.90000,  33, 0, 0.00000, 0.00000,  0.000
0 / END OF TRANSFORMER DATA, BEGIN AREA DATA
   1,     0,     0.000,    10.000,'EU          '
   2,     0,     0.000,    10.000,'elia.be     '
   3,     0,     0.000,    10.000,'tennet.eu   '
0 / END OF AREA DATA, BEGIN TWO-TERMINAL DC DATA
0 / END OF TWO-TERMINAL DC DATA, BEGIN VSC DC LINE DATA
0 / END OF VSC DC LINE DATA, BEGIN IMPEDANCE CORRECTION DATA
0 / END OF IMPEDANCE CORRECTION DATA, BEGIN MULTI-TERMINAL DC DATA
0 / END OF MULTI-TERMINAL DC DATA, BEGIN MULTI-SECTION LINE DATA
0 / END OF MULTI-SECTION LINE DATA, BEGIN ZONE DATA
   1,'1_ZONE 1    '
0 / END OF ZONE DATA, BEGIN INTER-AREA TRANSFER DATA
0 / END OF INTER-AREA TRANSFER DATA, BEGIN OWNER DATA
   1,'OWNER 1     '
0 / END OF OWNER DATA, BEGIN FACTS DEVICE DATA
0 / END OF FACTS DEVICE DATA, BEGIN SWITCHED SHUNT DATA
0 / END OF SWITCHED SHUNT DATA, BEGIN GNE DATA
0 / END OF GNE DATA, BEGIN INDUCTION MACHINE DATA
0 / END OF INDUCTION MACHINE DATA
Q